Version 4
SHEET 1 880 680
WIRE 80 64 0 64
WIRE 256 64 160 64
WIRE 368 64 256 64
WIRE 0 96 0 64
WIRE 368 128 368 64
WIRE 256 144 256 64
WIRE 0 192 0 176
WIRE 0 304 0 272
WIRE 256 304 256 208
WIRE 256 304 0 304
WIRE 368 304 368 208
WIRE 368 304 256 304
FLAG 256 304 0
SYMBOL advee_components\\BZX55C5V6 272 208 R180
WINDOW 0 24 72 Left 0
WINDOW 3 24 0 Left 0
SYMATTR InstName U1
SYMBOL res 176 48 R90
WINDOW 0 0 56 VBottom 2
WINDOW 3 32 56 VTop 2
SYMATTR InstName R1
SYMATTR Value 500
SYMBOL res 352 112 R0
SYMATTR InstName R2
SYMATTR Value 500
SYMBOL voltage 0 80 R0
WINDOW 123 0 0 Left 0
WINDOW 39 0 0 Left 0
SYMATTR InstName V1
SYMATTR Value SINE(0 5 50)
SYMBOL voltage 0 176 R0
WINDOW 123 0 0 Left 0
WINDOW 39 0 0 Left 0
SYMATTR InstName V2
SYMATTR Value 20
TEXT -34 344 Left 2 !.tran 0 1 0.9 0.001
