Version 4
SHEET 1 880 680
WIRE 96 112 32 112
WIRE 256 112 176 112
WIRE 32 128 32 112
WIRE 32 256 32 208
WIRE 144 256 32 256
WIRE 256 256 256 176
WIRE 256 256 144 256
WIRE 144 272 144 256
FLAG 144 272 0
SYMBOL advee_components\\1N4001 240 112 R0
SYMATTR InstName U1
SYMBOL res 192 96 R90
WINDOW 0 0 56 VBottom 2
WINDOW 3 32 56 VTop 2
SYMATTR InstName R1
SYMATTR Value 1K
SYMBOL voltage 32 112 R0
WINDOW 123 0 0 Left 0
WINDOW 39 0 0 Left 0
SYMATTR InstName V1
SYMATTR Value 5
TEXT 104 312 Left 2 !.dc V1 -10 10 0.01
