Version 4
SHEET 1 880 680
WIRE 16 96 -128 96
WIRE 144 96 96 96
WIRE 256 96 144 96
WIRE 256 112 256 96
WIRE -128 128 -128 96
WIRE 144 144 144 96
WIRE -128 288 -128 208
WIRE 144 288 144 208
WIRE 144 288 -128 288
WIRE 256 288 256 192
WIRE 256 288 144 288
WIRE 144 304 144 288
FLAG 144 304 0
SYMBOL voltage -128 112 R0
WINDOW 123 0 0 Left 0
WINDOW 39 0 0 Left 0
SYMATTR InstName V1
SYMATTR Value SINE(20 5 50)
SYMBOL advee_components\\BZX55C5V6 160 208 R180
WINDOW 0 24 72 Left 0
WINDOW 3 24 0 Left 0
SYMATTR InstName U1
SYMBOL res 0 112 R270
WINDOW 0 32 56 VTop 2
WINDOW 3 0 56 VBottom 2
SYMATTR InstName 500
SYMBOL res 240 96 R0
SYMATTR InstName 500
TEXT -162 328 Left 2 !.tran 0.1
