Version 4
SHEET 1 880 680
WIRE 288 112 48 112
WIRE 48 128 48 112
WIRE 288 176 224 176
WIRE 352 176 352 112
WIRE 416 176 352 176
WIRE 480 176 416 176
WIRE 416 224 416 176
WIRE 480 224 480 176
WIRE 48 240 48 208
WIRE 288 240 48 240
WIRE 352 240 352 176
WIRE 224 336 224 176
WIRE 416 336 416 288
WIRE 416 336 224 336
WIRE 464 336 416 336
WIRE 480 336 480 304
WIRE 480 336 464 336
FLAG 464 336 0
SYMBOL voltage 48 112 R0
WINDOW 123 0 0 Left 0
WINDOW 39 24 124 Left 2
SYMATTR SpiceLine Rser=50
SYMATTR InstName V1
SYMATTR Value SINE(0 10 100)
SYMBOL advee_components\\1N4001 304 176 R180
WINDOW 3 41 32 Left 0
WINDOW 0 24 72 Left 0
SYMATTR InstName U1
SYMBOL advee_components\\1N4001 288 256 R270
WINDOW 3 0 32 VBottom 2
WINDOW 0 32 32 VTop 2
SYMATTR InstName U2
SYMBOL advee_components\\1N4001 288 128 R270
WINDOW 3 0 32 VBottom 2
WINDOW 0 32 32 VTop 2
SYMATTR InstName U3
SYMBOL advee_components\\1N4001 272 176 R0
SYMATTR InstName U4
SYMBOL res 464 208 R0
SYMATTR InstName R1
SYMATTR Value 2K20
SYMBOL cap 400 224 R0
SYMATTR InstName C1
SYMATTR Value 47µ
TEXT 160 376 Left 2 !.tran 0 1 960m .05m
