Version 4
SHEET 1 880 680
WIRE 96 64 16 64
WIRE 256 64 160 64
WIRE 352 64 256 64
WIRE 16 112 16 64
WIRE 256 112 256 64
WIRE 352 112 352 64
WIRE 16 256 16 192
WIRE 256 256 256 176
WIRE 256 256 16 256
WIRE 352 256 352 192
WIRE 352 256 256 256
WIRE 256 272 256 256
FLAG 256 272 0
SYMBOL advee_components\\1N4001 96 80 R270
WINDOW 3 0 32 VBottom 2
WINDOW 0 32 32 VTop 2
SYMATTR InstName U1
SYMBOL voltage 16 96 R0
WINDOW 123 0 0 Left 0
WINDOW 39 24 124 Left 2
SYMATTR SpiceLine Rser=50
SYMATTR InstName V1
SYMATTR Value SINE(0 10 100)
SYMBOL cap 240 112 R0
SYMATTR InstName C1
SYMATTR Value 47µ
SYMBOL res 336 96 R0
SYMATTR InstName R1
SYMATTR Value 2K2
TEXT 64 304 Left 2 !.tran 0 1 960m .05m
