Version 4
SHEET 1 1088 680
WIRE 272 -32 96 -32
WIRE 640 -32 272 -32
WIRE 272 -16 272 -32
WIRE 272 64 208 64
WIRE 368 64 272 64
WIRE 512 64 432 64
WIRE -144 112 -176 112
WIRE -32 112 -64 112
WIRE 96 112 96 48
WIRE 96 112 32 112
WIRE 144 112 96 112
WIRE 640 112 640 -32
WIRE 272 160 208 160
WIRE 368 160 272 160
WIRE 512 160 512 64
WIRE -176 176 -176 112
WIRE 96 192 96 112
FLAG -176 256 0
FLAG 96 272 0
FLAG 272 240 0
FLAG 368 224 0
FLAG 512 240 0
FLAG 640 192 0
SYMBOL res -48 96 R90
WINDOW 0 0 56 VBottom 2
WINDOW 3 32 56 VTop 2
SYMATTR InstName R1
SYMATTR Value 2200
SYMBOL res 80 -48 R0
SYMATTR InstName R2
SYMATTR Value 20000
SYMBOL res 80 176 R0
SYMATTR InstName R3
SYMATTR Value 10000
SYMBOL res 256 -32 R0
SYMATTR InstName R4
SYMATTR Value 1000
SYMBOL res 256 144 R0
SYMATTR InstName R5
SYMATTR Value 560
SYMBOL res 496 144 R0
SYMATTR InstName R6
SYMATTR Value 1000
SYMBOL voltage -176 160 R0
WINDOW 123 24 124 Left 2
WINDOW 39 0 0 Left 0
SYMATTR Value2 AC 50m
SYMATTR InstName V1
SYMATTR Value SINE(0 50m 0)
SYMBOL voltage 640 96 R0
WINDOW 123 0 0 Left 0
WINDOW 39 0 0 Left 0
SYMATTR InstName V2
SYMATTR Value 20
SYMBOL npn 144 64 R0
SYMATTR InstName Q1
SYMATTR Value 2N2222
SYMBOL cap 32 96 R90
WINDOW 0 0 32 VBottom 2
WINDOW 3 32 32 VTop 2
SYMATTR InstName C1
SYMATTR Value 1µ
SYMBOL cap 368 80 R270
WINDOW 0 32 32 VTop 2
WINDOW 3 0 32 VBottom 2
SYMATTR InstName C2
SYMATTR Value 1µ
SYMBOL cap 352 160 R0
SYMATTR InstName C3
SYMATTR Value 100µ
TEXT 248 328 Left 2 !;.tran 0 1 0.9998 10u
TEXT 248 392 Left 2 !.ac dec 10 100 1Meg
TEXT 608 320 Left 2 !;.op
TEXT 208 -208 Left 2 !.MEAS AC tmp max mag(V(n003));
TEXT -56 -112 Left 2 !.MEAS AC BW trig mag(V(n003))=tmp/sqrt(2) rise=1 targ mag(V(n003))=tmp/sqrt(2) fall=last
