Version 4
SHEET 1 880 680
WIRE 144 32 -96 32
WIRE 304 32 144 32
WIRE 144 48 144 32
WIRE -96 64 -96 32
WIRE 304 112 304 32
WIRE 144 128 64 128
WIRE -96 176 -96 144
WIRE 0 176 -96 176
WIRE 144 224 64 224
WIRE -96 240 -96 176
WIRE -96 336 -96 304
WIRE 144 336 144 304
WIRE 144 336 -96 336
WIRE 304 336 304 192
WIRE 304 336 144 336
FLAG 144 336 0
SYMBOL res -112 48 R0
SYMATTR InstName R1
SYMATTR Value 215
SYMBOL res 128 208 R0
SYMATTR InstName R2
SYMATTR Value 1000
SYMBOL res 128 32 R0
SYMATTR InstName R3
SYMATTR Value {X}
SYMBOL voltage 304 96 R0
WINDOW 123 0 0 Left 0
WINDOW 39 0 0 Left 0
SYMATTR InstName V1
SYMATTR Value 9
SYMBOL zener -80 304 R180
WINDOW 0 24 64 Left 2
WINDOW 3 24 0 Left 2
SYMATTR InstName D2
SYMATTR Value 1N750
SYMATTR Description Diode
SYMATTR Type diode
SYMBOL npn 0 128 R0
WINDOW 3 56 60 Left 2
SYMATTR InstName Q1
SYMATTR Value 2N2222
TEXT 64 384 Left 2 !.step param X 10 2K 10
TEXT -40 376 Left 2 !.op
