Version 4
SHEET 1 1080 680
WIRE 144 -16 112 -16
WIRE 336 -16 144 -16
WIRE 112 48 112 -16
WIRE 144 96 144 -16
WIRE 144 96 112 96
WIRE 64 128 -16 128
WIRE 336 128 336 -16
WIRE -16 176 -16 128
WIRE 112 176 112 144
WIRE -16 192 -16 176
WIRE -16 192 -128 192
WIRE 112 192 112 176
WIRE -128 224 -128 192
WIRE 176 240 112 240
WIRE -16 272 -16 192
WIRE 64 272 -16 272
WIRE 112 336 112 288
WIRE 176 336 176 240
WIRE 176 336 112 336
WIRE 240 336 176 336
WIRE 336 336 336 208
WIRE 336 336 240 336
FLAG 240 336 0
FLAG 112 176 Vout
FLAG -128 304 0
FLAG -16 176 Vin
SYMBOL advee_components\\MbreakN 64 192 R0
SYMATTR InstName U1
SYMBOL advee_components\\MbreakP 64 48 R0
SYMATTR InstName U2
SYMBOL voltage -128 208 R0
WINDOW 123 0 0 Left 0
WINDOW 39 0 0 Left 0
SYMATTR InstName V2
SYMATTR Value 0
SYMBOL voltage 336 112 R0
WINDOW 123 0 0 Left 0
WINDOW 39 0 0 Left 0
SYMATTR InstName V1
SYMATTR Value 5
TEXT 440 40 Left 2 !.dc V2 0 5 0.001
