Version 4
SHEET 1 880 680
WIRE -16 -32 -80 -32
WIRE 384 -32 -16 -32
WIRE -80 16 -80 -32
WIRE -16 64 -16 -32
WIRE -16 64 -80 64
WIRE -128 96 -160 96
WIRE 384 112 384 -32
WIRE -160 160 -160 96
WIRE -160 160 -224 160
WIRE -80 160 -80 112
WIRE 80 160 -80 160
WIRE -80 192 -80 160
WIRE -32 240 -80 240
WIRE 80 240 80 160
WIRE -160 272 -160 160
WIRE -128 272 -160 272
WIRE -224 304 -224 160
WIRE -80 368 -80 288
WIRE -32 368 -32 240
WIRE -32 368 -80 368
WIRE 80 368 80 304
WIRE 80 368 -32 368
WIRE 224 368 80 368
WIRE 384 368 384 192
WIRE 384 368 224 368
FLAG -224 384 0
FLAG 80 160 Vout
FLAG 224 368 0
SYMBOL voltage 384 96 R0
WINDOW 123 0 0 Left 0
WINDOW 39 0 0 Left 0
SYMATTR InstName V1
SYMATTR Value 5
SYMBOL advee_components\\MbreakN -128 192 R0
SYMATTR InstName U1
SYMBOL advee_components\\MbreakP -128 16 R0
SYMATTR InstName U2
SYMBOL cap 64 240 R0
SYMATTR InstName C1
SYMATTR Value {C}
SYMBOL voltage -224 288 R0
WINDOW 123 0 0 Left 0
WINDOW 39 0 0 Left 0
SYMATTR InstName V2
SYMATTR Value PULSE(0 5 0 20n 20n 0.5m 1m)
TEXT 32 -64 Left 2 !.step param C 25p 100p 25p
TEXT 56 -120 Left 2 !.tran 0 5m 1m
