Version 4
SHEET 1 1064 680
WIRE 64 -272 64 -288
WIRE 688 -176 688 -192
WIRE 288 -160 -128 -160
WIRE 640 -160 288 -160
WIRE 64 -96 64 -272
WIRE 128 -96 64 -96
WIRE 560 -80 512 -80
WIRE 688 -80 688 -176
WIRE 688 -80 560 -80
WIRE 816 -80 688 -80
WIRE 880 -80 816 -80
WIRE 64 -48 64 -96
WIRE 512 -48 512 -80
WIRE 816 -48 816 -80
WIRE 128 0 128 -96
WIRE 128 0 64 0
WIRE 560 0 560 -80
WIRE 560 0 512 0
WIRE 880 0 880 -80
WIRE 880 0 816 0
WIRE 16 32 -48 32
WIRE 640 32 640 -160
WIRE 768 32 640 32
WIRE 64 64 64 48
WIRE 384 64 64 64
WIRE 464 64 464 32
WIRE 464 64 384 64
WIRE 512 64 512 48
WIRE 560 64 512 64
WIRE 816 64 816 48
WIRE 864 64 816 64
WIRE 64 80 64 64
WIRE 512 80 512 64
WIRE 816 80 816 64
WIRE -256 96 -464 96
WIRE -128 96 -128 -160
WIRE -128 96 -256 96
WIRE -48 96 -48 32
WIRE -48 96 -128 96
WIRE 384 96 384 64
WIRE 656 96 384 96
WIRE 80 128 64 128
WIRE 560 128 560 64
WIRE 560 128 512 128
WIRE 864 128 864 64
WIRE 864 128 816 128
WIRE -48 160 -48 96
WIRE 16 160 -48 160
WIRE 80 160 80 128
WIRE 80 160 64 160
WIRE 464 160 432 160
WIRE 768 160 704 160
WIRE 512 224 512 176
WIRE 816 224 816 176
WIRE 816 224 512 224
WIRE 992 224 816 224
WIRE 432 240 432 160
WIRE 432 240 -112 240
WIRE -464 256 -464 96
WIRE 512 272 512 224
WIRE 816 272 816 224
WIRE 96 288 64 288
WIRE 96 320 96 288
WIRE 96 320 64 320
WIRE 560 320 512 320
WIRE 864 320 816 320
WIRE 656 336 656 96
WIRE 768 336 656 336
WIRE 16 352 -64 352
WIRE 288 352 288 -160
WIRE 464 352 288 352
WIRE 768 352 768 336
WIRE 512 368 64 368
WIRE 704 368 704 160
WIRE 704 368 512 368
WIRE 64 384 64 368
WIRE 512 384 512 368
WIRE 560 384 560 320
WIRE 560 384 512 384
WIRE 816 384 816 368
WIRE 864 384 864 320
WIRE 864 384 816 384
WIRE -240 400 -336 400
WIRE -112 400 -112 240
WIRE -112 400 -240 400
WIRE -64 400 -64 352
WIRE -64 400 -112 400
WIRE 512 400 512 384
WIRE 816 400 816 384
WIRE -336 432 -336 400
WIRE 128 432 64 432
WIRE 560 448 512 448
WIRE 864 448 816 448
WIRE -64 464 -64 400
WIRE 16 464 -64 464
WIRE 432 480 432 240
WIRE 464 480 432 480
WIRE 704 480 704 368
WIRE 768 480 704 480
WIRE 64 528 64 480
WIRE 128 528 128 432
WIRE 128 528 64 528
WIRE 304 528 128 528
WIRE 512 528 512 496
WIRE 512 528 304 528
WIRE 560 528 560 448
WIRE 560 528 512 528
WIRE 816 528 816 496
WIRE 816 528 560 528
WIRE 864 528 864 448
WIRE 864 528 816 528
FLAG 64 176 0
FLAG 304 528 0
FLAG 64 272 VDD
FLAG 64 -272 VDD
FLAG 688 -176 VDD
FLAG 992 224 Vout
FLAG -256 96 A
FLAG -240 400 B
FLAG -576 176 0
FLAG -576 96 VDD
FLAG -464 336 0
FLAG -336 512 0
SYMBOL advee_components\\MbreakN 16 80 R0
SYMATTR InstName U1
SYMBOL advee_components\\MbreakN 16 384 R0
SYMATTR InstName U2
SYMBOL advee_components\\MbreakN 464 272 R0
SYMATTR InstName U3
SYMBOL advee_components\\MbreakN 464 400 R0
SYMATTR InstName U4
SYMBOL advee_components\\MbreakN 768 400 R0
SYMATTR InstName U5
SYMBOL advee_components\\MbreakN 768 272 R0
SYMATTR InstName U6
SYMBOL advee_components\\MbreakP 16 -48 R0
SYMATTR InstName U7
SYMBOL advee_components\\MbreakP 16 272 R0
SYMATTR InstName U8
SYMBOL advee_components\\MbreakP 464 80 R0
SYMATTR InstName U9
SYMBOL advee_components\\MbreakP 464 -48 R0
SYMATTR InstName U10
SYMBOL advee_components\\MbreakP 768 80 R0
SYMATTR InstName U11
SYMBOL advee_components\\MbreakP 768 -48 R0
SYMATTR InstName U12
SYMBOL voltage -576 80 R0
WINDOW 123 0 0 Left 0
WINDOW 39 0 0 Left 0
SYMATTR InstName V1
SYMATTR Value 10
SYMBOL voltage -464 240 R0
WINDOW 123 0 0 Left 0
WINDOW 39 0 0 Left 0
SYMATTR InstName V2
SYMATTR Value PULSE(0 10 0 0 0 5m 10m)
SYMBOL voltage -336 416 R0
WINDOW 123 0 0 Left 0
WINDOW 39 0 0 Left 0
SYMATTR InstName V3
SYMATTR Value PULSE(0 10 2.5m 0 0 5m 10m)
TEXT -288 552 Left 2 !.tran 100m
