Version 4
SHEET 1 880 680
WIRE 560 -32 -64 -32
WIRE 48 16 32 16
WIRE 224 16 48 16
WIRE 256 16 224 16
WIRE 448 16 256 16
WIRE 512 16 448 16
WIRE 656 16 512 16
WIRE 224 32 224 16
WIRE 448 32 448 16
WIRE 32 48 32 16
WIRE 256 80 256 16
WIRE 256 80 224 80
WIRE 512 80 512 16
WIRE 512 80 448 80
WIRE 48 96 48 16
WIRE 48 96 32 96
WIRE 176 112 160 112
WIRE 288 112 272 112
WIRE 352 112 288 112
WIRE 400 112 352 112
WIRE -16 128 -48 128
WIRE 256 128 224 128
WIRE 464 128 448 128
WIRE 656 128 656 16
WIRE 64 144 32 144
WIRE 112 144 64 144
WIRE 160 144 160 112
WIRE 160 144 112 144
WIRE 256 144 256 128
WIRE 272 144 272 112
WIRE 272 144 256 144
WIRE 464 144 464 128
WIRE 560 144 560 -32
WIRE 560 144 464 144
WIRE 64 160 64 144
WIRE 64 160 32 160
WIRE 256 160 256 144
WIRE 256 160 224 160
WIRE 464 160 464 144
WIRE 464 160 448 160
WIRE 560 176 560 144
WIRE -64 192 -64 -32
WIRE -48 192 -48 128
WIRE -48 192 -64 192
WIRE 288 192 288 112
WIRE 48 208 32 208
WIRE 256 208 224 208
WIRE 464 208 448 208
WIRE -48 240 -48 192
WIRE -16 240 -48 240
WIRE 160 240 160 144
WIRE 176 240 160 240
WIRE 352 240 352 112
WIRE 400 240 352 240
WIRE 48 256 48 208
WIRE 48 256 32 256
WIRE 256 256 256 208
WIRE 256 256 224 256
WIRE 464 256 464 208
WIRE 464 256 448 256
WIRE 32 288 32 256
WIRE 112 288 112 208
WIRE 224 288 224 256
WIRE 288 288 288 256
WIRE 448 288 448 256
WIRE 560 288 560 240
WIRE 656 288 656 208
FLAG 32 288 0
FLAG 224 288 0
FLAG 448 288 0
FLAG 656 288 0
FLAG 112 288 0
FLAG 288 288 0
FLAG 560 288 0
SYMBOL advee_components\\MbreakN -16 160 R0
SYMATTR InstName U1
SYMBOL advee_components\\MbreakN 176 160 R0
SYMATTR InstName U2
SYMBOL advee_components\\MbreakN 400 160 R0
SYMATTR InstName U3
SYMBOL advee_components\\MbreakP -16 48 R0
SYMATTR InstName U4
SYMBOL advee_components\\MbreakP 176 32 R0
SYMATTR InstName U5
SYMBOL advee_components\\MbreakP 400 32 R0
SYMATTR InstName U6
SYMBOL voltage 656 112 R0
WINDOW 123 0 0 Left 0
WINDOW 39 0 0 Left 0
SYMATTR InstName VDD
SYMATTR Value 5
SYMBOL cap 96 144 R0
SYMATTR InstName C1
SYMATTR Value 50p
SYMBOL cap 272 192 R0
SYMATTR InstName C2
SYMATTR Value 50p
SYMBOL cap 544 176 R0
SYMATTR InstName C3
SYMATTR Value 50p
TEXT -66 312 Left 2 !.tran 15u
